Version 4
SHEET 1 880 680
WIRE 272 96 224 96
WIRE 416 96 352 96
WIRE 32 192 -64 192
WIRE 224 192 224 96
WIRE 224 192 176 192
WIRE 272 192 224 192
WIRE 416 208 416 96
WIRE 416 208 336 208
WIRE 272 224 224 224
WIRE 224 256 224 224
FLAG 224 256 0
FLAG -64 272 0
SYMBOL cap 96 176 R90
WINDOW 0 0 32 VBottom 2
WINDOW 3 32 32 VTop 2
SYMATTR InstName C1
SYMBOL res 192 176 R90
WINDOW 0 0 56 VBottom 2
WINDOW 3 32 56 VTop 2
SYMATTR InstName R1
SYMBOL OpAmps\\OP213 304 144 R0
SYMATTR InstName U1
SYMBOL res 368 80 R90
WINDOW 0 0 56 VBottom 2
WINDOW 3 32 56 VTop 2
SYMATTR InstName R2
SYMBOL cap 480 192 R90
WINDOW 0 0 32 VBottom 2
WINDOW 3 32 32 VTop 2
SYMATTR InstName C2
SYMBOL voltage -64 176 R0
WINDOW 123 24 124 Left 2
WINDOW 39 0 0 Left 0
SYMATTR InstName V1
SYMATTR Value ""
SYMATTR Value2 AC 0.5 0
TEXT -192 288 Left 2 !.tf Vout Vin
