Version 4
SHEET 1 880 680
WIRE 48 0 -64 0
WIRE 48 32 48 0
WIRE -112 64 -64 0
WIRE 272 96 224 96
WIRE 416 96 352 96
WIRE -64 192 -112 144
WIRE 32 192 -64 192
WIRE 224 192 224 96
WIRE 224 192 176 192
WIRE 272 192 224 192
WIRE 416 208 416 96
WIRE 416 208 336 208
WIRE 272 224 224 224
WIRE 224 256 224 224
FLAG 48 32 0
FLAG 224 256 0
FLAG -112 144 Vin
IOPIN -112 144 In
FLAG 480 208 Vout
IOPIN 480 208 Out
SYMBOL cap 96 176 R90
WINDOW 0 0 32 VBottom 2
WINDOW 3 32 32 VTop 2
SYMATTR InstName C1
SYMBOL res 192 176 R90
WINDOW 0 0 56 VBottom 2
WINDOW 3 32 56 VTop 2
SYMATTR InstName R1
SYMBOL OpAmps\\OP213 304 144 R0
SYMATTR InstName U1
SYMBOL res 368 80 R90
WINDOW 0 0 56 VBottom 2
WINDOW 3 32 56 VTop 2
SYMATTR InstName R2
SYMBOL cap 480 192 R90
WINDOW 0 0 32 VBottom 2
WINDOW 3 32 32 VTop 2
SYMATTR InstName C2
TEXT -188 284 Left 2 !.tf Vout Vin
